Version 4
SHEET 1 908 680
WIRE 592 -80 -96 -80
WIRE 416 -64 -96 -64
WIRE 224 -48 -96 -48
WIRE 48 -32 -96 -32
WIRE 560 0 -96 0
WIRE 384 16 -96 16
WIRE 192 32 -96 32
WIRE 16 48 -96 48
WIRE 16 80 16 48
WIRE 48 80 48 -32
WIRE 192 80 192 32
WIRE 224 80 224 -48
WIRE 384 80 384 16
WIRE 416 80 416 -64
WIRE 560 80 560 0
WIRE 592 80 592 -80
WIRE 0 112 -96 112
WIRE 112 112 64 112
WIRE 176 112 112 112
WIRE 368 112 240 112
WIRE 544 112 432 112
WIRE 32 160 32 144
WIRE 176 160 32 160
WIRE 400 160 400 144
WIRE 400 160 240 160
WIRE 112 176 112 112
WIRE 112 176 -64 176
WIRE 576 176 576 144
WIRE 576 176 272 176
WIRE -96 192 -96 112
WIRE -64 192 -64 176
WIRE -112 224 -128 224
WIRE 176 240 176 160
WIRE 208 240 208 144
WIRE 240 240 240 160
WIRE 272 240 272 176
WIRE -64 304 -64 256
WIRE 368 304 336 304
WIRE 496 304 448 304
WIRE 528 304 496 304
FLAG -64 304 O
FLAG 336 304 HI
FLAG -96 112 Carryout
FLAG 176 240 S3
FLAG 208 240 S2
FLAG 240 240 S1
FLAG 272 240 S0
FLAG 608 304 0
FLAG 608 112 LO
FLAG 496 304 LO
FLAG -128 224 0
FLAG -96 -80 A0
FLAG -96 -64 A1
FLAG -96 -48 A2
FLAG -96 -32 A3
FLAG -96 0 B0
FLAG -96 16 B1
FLAG -96 32 B2
FLAG -96 48 B3
SYMBOL Digital\\xor -16 240 R90
SYMATTR InstName Overflow
SYMBOL voltage 352 304 R270
WINDOW 123 0 0 Left 2
WINDOW 39 0 0 Left 2
WINDOW 0 52 32 VRight 2
WINDOW 3 26 97 VRight 2
SYMATTR InstName Vcc
SYMATTR Value 1
SYMBOL res 512 320 R270
WINDOW 0 32 56 VTop 2
WINDOW 3 0 56 VBottom 2
SYMATTR InstName R1
SYMATTR Value 1000m
SYMBOL one_bit_adder 32 112 R0
SYMATTR InstName X1
SYMBOL one_bit_adder 208 112 R0
SYMATTR InstName X2
SYMBOL one_bit_adder 400 112 R0
SYMATTR InstName X3
SYMBOL one_bit_adder 576 112 R0
SYMATTR InstName X4
TEXT 424 224 Left 2 !.tran 1
TEXT 568 112 Left 2 ;0
TEXT 392 112 Left 2 ;1
TEXT 200 112 Left 2 ;2
TEXT 24 112 Left 2 ;3
